.subckt fsdprb_x1 Q QN CK D SI SE RD VDD VSS
* Abstract subckt (no MOS instances).
* ref_lib analogue: provide a PDK-specific transistor netlist if needed.
* Use verilog/vhdl for functional simulation; provide a PDK-specific netlist for transistor-level.
.ends fsdprb_x1
