.subckt ldpsbq_x1 Q G D SD VDD VSS
* Abstract subckt (no MOS instances).
* ref_lib analogue: provide a PDK-specific transistor netlist if needed.
* Use verilog/vhdl for functional simulation; provide a PDK-specific netlist for transistor-level.
.ends ldpsbq_x1
