.subckt tapdn_x1 VDD VSS VBN
* Physical cell: abstract subckt (rails per PDK CDL; add PDK devices if needed).
* Abstract subckt (no MOS instances).
* No transistor template was found for this kind/drive.
.ends tapdn_x1
