.subckt tiehi_x1 L_HI VDD VSS
* Physical cell: abstract subckt (rails per PDK CDL; add PDK devices if needed).
* Abstract subckt (no MOS instances).
* No transistor template was found for this kind/drive.
.ends tiehi_x1
