* CDL/LVS-oriented netlist
.SUBCKT benc_x1 S A X M0 M1 M2 VDD VSS
* Abstract subckt (no MOS instances).
* ref_lib analogue: provide a PDK-specific transistor netlist if needed.
* Use verilog/vhdl for functional simulation; provide a PDK-specific netlist for transistor-level.
.ENDS benc_x1
