* CDL/LVS-oriented netlist
.SUBCKT fdprbq_f_x1 Q CK D RD VDD VSS
* Abstract subckt (no MOS instances).
* ref_lib analogue: provide a PDK-specific transistor netlist if needed.
* Use verilog/vhdl for functional simulation; provide a PDK-specific netlist for transistor-level.
.ENDS fdprbq_f_x1
